McPAT (version 1.3 of Feb, 2015) is computing the target processor...
 

McPAT (version 1.3 of Feb, 2015) results (current print level is 2, please increase print level to see the details in components): 
*****************************************************************************************
  Technology 22 nm
  Using Long Channel Devices When Appropriate
  Interconnect metal projection= aggressive interconnect technology projection
  Core clock Rate(MHz) 2100

*****************************************************************************************
Processor: 
  Area = 50.8597 mm^2
  Peak Power = 44.1264 W
  Total Leakage = 1.01524 W
  Peak Dynamic = 43.1112 W
  Subthreshold Leakage = 0.996926 W
  Gate Leakage = 0.0183138 W
  Runtime Dynamic = 2.80642 W

  Total Cores: 1 cores 
  Device Type= ITRS high performance device type
    Area = 35.1361 mm^2
    Peak Dynamic = 38.8195 W
    Subthreshold Leakage = 0.576695 W
    Gate Leakage = 0.00863376 W
    Runtime Dynamic = 0.154971 W

  Total L3s: 
  Device Type= ITRS high performance device type
    Area = 12.5473 mm^2
    Peak Dynamic = 0.477022 W
    Subthreshold Leakage = 0.354833 W
    Gate Leakage = 0.00794463 W
    Runtime Dynamic = 0 W

  Total First Level Directory: 
  Device Type= ITRS high performance device type
    Area = 0.0981263 mm^2
    Peak Dynamic = 0 W
    Subthreshold Leakage = 0.00271355 W
    Gate Leakage = 0.000105986 W
    Runtime Dynamic = 1.73181 W

  Total Second Level Directory: 
  Device Type= ITRS high performance device type
    Area = 2.44768 mm^2
    Peak Dynamic = 0 W
    Subthreshold Leakage = 0.0590133 W
    Gate Leakage = 0.0014502 W
    Runtime Dynamic = 0.0911561 W

  Total NoCs (Network/Bus): 
  Device Type= ITRS high performance device type
    Area = 0.04521 mm^2
    Peak Dynamic = 0.0560943 W
    Subthreshold Leakage = 0.00146835 W
    Gate Leakage = 4.06193e-05 W
    Runtime Dynamic = 0.370103 W

  Total MCs: 1 Memory Controllers 
  Device Type= ITRS high performance device type
    Area = 0.585266 mm^2
    Peak Dynamic = 3.75856 W
    Subthreshold Leakage = 0.00220167 W
    Gate Leakage = 0.000138626 W
    Runtime Dynamic = 0.458377 W

*****************************************************************************************
Core:
      Area = 35.1361 mm^2
      Peak Dynamic = 38.8195 W
      Subthreshold Leakage = 0.576695 W
      Gate Leakage = 0.00863376 W
      Runtime Dynamic = 0.154971 W

      Instruction Fetch Unit:
        Area = 21.6211 mm^2
        Peak Dynamic = 25.8036 W
        Subthreshold Leakage = 0.267355 W
        Gate Leakage = 0.00413773 W
        Runtime Dynamic = 0.0827476 W

      Renaming Unit:
        Area = 0.0251326 mm^2
        Peak Dynamic = 0.113476 W
        Subthreshold Leakage = 0.000470805 W
        Gate Leakage = 1.73514e-05 W
        Runtime Dynamic = 0.00319581 W

      Load Store Unit:
        Area = 1.17693 mm^2
        Peak Dynamic = 2.85122 W
        Subthreshold Leakage = 0.0710713 W
        Gate Leakage = 0.00133124 W
        Runtime Dynamic = 0 W

      Memory Management Unit:
        Area = 0.0211555 mm^2
        Peak Dynamic = 0.0222669 W
        Subthreshold Leakage = 0.00119696 W
        Runtime Dynamic = 0 W

      Execution Unit:
        Area = 8.74983 mm^2
        Peak Dynamic = 9.08263 W
        Subthreshold Leakage = 0.0433837 W
        Runtime Dynamic = 0.0690278 W

    L2
    Area = 3.4925 mm^2
    Peak Dynamic = 0.946335 W
    Subthreshold Leakage = 0.191109 W
    Gate Leakage = 0.00227352 W
    Runtime Dynamic = 0 W

*****************************************************************************************
      L3
      Area = 12.5473 mm^2
      Peak Dynamic = 0.477022 W
      Subthreshold Leakage = 0.354833 W
      Gate Leakage = 0.00794463 W
      Runtime Dynamic = 0 W

*****************************************************************************************
      First Level Directory
      Area = 0.0981263 mm^2
      Peak Dynamic = 0 W
      Subthreshold Leakage = 0.00271355 W
      Gate Leakage = 0.000105986 W
      Runtime Dynamic = 1.73181 W

*****************************************************************************************
      Second Level Directory
      Area = 2.44768 mm^2
      Peak Dynamic = 0 W
      Subthreshold Leakage = 0.0590133 W
      Gate Leakage = 0.0014502 W
      Runtime Dynamic = 0.0911561 W

*****************************************************************************************
Memory Controller:
      Area = 0.585266 mm^2
      Peak Dynamic = 3.75856 W
      Subthreshold Leakage = 0.00220167 W
      Gate Leakage = 0.000138626 W
      Runtime Dynamic = 0.458377 W

      Front End Engine:
        Area = 0.0282043 mm^2
        Peak Dynamic = 0.0946396 W
        Subthreshold Leakage = 0.000430877 W
        Gate Leakage = 1.09532e-05 W
        Runtime Dynamic = 0.0112511 W

      Transaction Engine:
        Area = 0.0343669 mm^2
        Peak Dynamic = 3.55267 W
        Subthreshold Leakage = 0.000354159 W
        Gate Leakage = 2.55346e-05 W
        Runtime Dynamic = 0.4234 W

      PHY:
        Area = 0.522694 mm^2
        Peak Dynamic = 0.111249 W
        Subthreshold Leakage = 0.00141664 W
        Gate Leakage = 0.000102138 W
        Runtime Dynamic = 0.0237261 W

*****************************************************************************************
BUSES
      Area = 0.04521 mm^2
      Peak Dynamic = 0.0560943 W
      Subthreshold Leakage = 0.00146835 W
      Gate Leakage = 4.06193e-05 W
      Runtime Dynamic = 0.370103 W

      Bus: 
        Area = 0.04521 mm^2
        Peak Dynamic = 0.0560943 W
        Subthreshold Leakage = 0.00146835 W
        Gate Leakage = 4.06193e-05 W
        Runtime Dynamic = 0.370103 W

*****************************************************************************************
